* NGSPICE file created from user_analog_project_wrapper.ext - technology: sky130A

.subckt InverterBlock PD VIN VIP VCTRL VOP VON VDD VSS
X0 VOP VSS sky130_fd_pr__cap_mim_m3_1 l=2e+06u w=1.25e+06u
X1 VDD VCTRL VON VDD sky130_fd_pr__pfet_01v8 ad=3e+12p pd=1.4e+07u as=7.5e+11p ps=3.5e+06u w=1e+06u l=150000u
X2 a_210_n610# VIN VOP VSS sky130_fd_pr__nfet_01v8 ad=1.5e+12p pd=7e+06u as=7.5e+11p ps=3.5e+06u w=1e+06u l=150000u
X3 VON VIP a_210_n610# VSS sky130_fd_pr__nfet_01v8 ad=7.5e+11p pd=3.5e+06u as=0p ps=0u w=1e+06u l=150000u
X4 VON VSS sky130_fd_pr__cap_mim_m3_1 l=2e+06u w=1.25e+06u
X5 VON VOP VDD VDD sky130_fd_pr__pfet_01v8 ad=0p pd=0u as=0p ps=0u w=1e+06u l=150000u
X6 VDD VON VOP VDD sky130_fd_pr__pfet_01v8 ad=0p pd=0u as=7.5e+11p ps=3.5e+06u w=1e+06u l=150000u
X7 a_210_n610# PD VSS VSS sky130_fd_pr__nfet_01v8 ad=0p pd=0u as=7.5e+11p ps=3.5e+06u w=1e+06u l=150000u
X8 VOP VCTRL VDD VDD sky130_fd_pr__pfet_01v8 ad=0p pd=0u as=0p ps=0u w=1e+06u l=150000u
.ends

.subckt RingOsl_v0_3stage InverterBlock_2/VCTRL InverterBlock_2/PD m4_n740_n720# InverterBlock_2/VOP
+ InverterBlock_2/VDD InverterBlock_2/VON VSUBS
XInverterBlock_0 InverterBlock_2/PD InverterBlock_2/VOP InverterBlock_2/VON InverterBlock_2/VCTRL
+ InverterBlock_1/VIN InverterBlock_1/VIP InverterBlock_2/VDD VSUBS InverterBlock
XInverterBlock_1 InverterBlock_2/PD InverterBlock_1/VIN InverterBlock_1/VIP InverterBlock_2/VCTRL
+ InverterBlock_2/VIN InverterBlock_2/VIP InverterBlock_2/VDD VSUBS InverterBlock
XInverterBlock_2 InverterBlock_2/PD InverterBlock_2/VIN InverterBlock_2/VIP InverterBlock_2/VCTRL
+ InverterBlock_2/VOP InverterBlock_2/VON InverterBlock_2/VDD VSUBS InverterBlock
.ends

.subckt ComparatorQpixLayout Vone Vtwo Ibias Ihyst OUT VDD VSS
X0 a_4370_n3540# a_4290_n2640# a_2630_n1740# VSS sky130_fd_pr__nfet_01v8_lvt ad=4e+12p pd=1.3e+07u as=1.5e+12p ps=8e+06u w=2e+06u l=500000u
X1 a_3420_n2590# a_2630_n1740# VDD VDD sky130_fd_pr__pfet_01v8_lvt ad=2e+12p pd=6e+06u as=1.38e+13p ps=4.39e+07u w=2e+06u l=1e+06u
X2 a_5170_n3540# Ibias VSS VSS sky130_fd_pr__nfet_01v8_lvt ad=3e+12p pd=8e+06u as=1.32e+13p ps=4.02e+07u w=3e+06u l=1e+06u
X3 a_3170_n3540# Ibias VSS VSS sky130_fd_pr__nfet_01v8_lvt ad=3.5e+12p pd=1.1e+07u as=0p ps=0u w=3e+06u l=1e+06u
X4 OUT a_4520_n2640# VDD VDD sky130_fd_pr__pfet_01v8_lvt ad=2.8e+12p pd=9.4e+06u as=0p ps=0u w=4e+06u l=500000u
X5 a_4290_n2640# a_5170_n3540# VDD VDD sky130_fd_pr__pfet_01v8_lvt ad=2.8e+12p pd=9.4e+06u as=0p ps=0u w=4e+06u l=500000u
X6 VSS Ihyst Ihyst VSS sky130_fd_pr__nfet_01v8_lvt ad=0p pd=0u as=3e+12p ps=8e+06u w=3e+06u l=1e+06u
X7 a_4520_n2640# a_4290_n2640# VDD VDD sky130_fd_pr__pfet_01v8_lvt ad=2.8e+12p pd=9.4e+06u as=0p ps=0u w=4e+06u l=500000u
X8 a_3420_n2590# Vtwo a_3170_n3540# VSS sky130_fd_pr__nfet_01v8_lvt ad=1.5e+12p pd=8e+06u as=0p ps=0u w=1e+06u l=500000u
X9 VSS Ibias Ibias VSS sky130_fd_pr__nfet_01v8_lvt ad=0p pd=0u as=3e+12p ps=8e+06u w=3e+06u l=1e+06u
X10 VDD a_2630_n1740# a_2630_n1740# VDD sky130_fd_pr__pfet_01v8_lvt ad=0p pd=0u as=2e+12p ps=6e+06u w=2e+06u l=1e+06u
X11 a_3170_n3540# Vone a_2630_n1740# VSS sky130_fd_pr__nfet_01v8_lvt ad=0p pd=0u as=0p ps=0u w=1e+06u l=500000u
X12 OUT a_4520_n2640# VSS VSS sky130_fd_pr__nfet_01v8_lvt ad=1.4e+12p pd=5.4e+06u as=0p ps=0u w=2e+06u l=500000u
X13 a_4290_n2640# a_5170_n3540# VSS VSS sky130_fd_pr__nfet_01v8_lvt ad=1.4e+12p pd=5.4e+06u as=0p ps=0u w=2e+06u l=500000u
X14 a_4520_n2640# a_4290_n2640# VSS VSS sky130_fd_pr__nfet_01v8_lvt ad=1.4e+12p pd=5.4e+06u as=0p ps=0u w=2e+06u l=500000u
X15 a_3420_n2590# a_4520_n2640# a_4370_n3540# VSS sky130_fd_pr__nfet_01v8_lvt ad=0p pd=0u as=0p ps=0u w=2e+06u l=500000u
X16 a_4370_n3540# Ihyst VSS VSS sky130_fd_pr__nfet_01v8_lvt ad=0p pd=0u as=0p ps=0u w=3e+06u l=1e+06u
X17 a_5170_n3540# a_3420_n2590# VDD VDD sky130_fd_pr__pfet_01v8_lvt ad=2.8e+12p pd=9.4e+06u as=0p ps=0u w=4e+06u l=500000u
.ends

.subckt classic-opamp OUT Bias1 INP INN VDD VSS m4_n5040_n7950#
X0 VDD Bias1 a_n3330_n4260# VDD sky130_fd_pr__pfet_01v8_lvt ad=4.5e+13p pd=1.06e+08u as=6.6e+13p ps=1.54e+08u w=6e+06u l=350000u
X1 a_n920_n3280# INN a_n3330_n4260# VDD sky130_fd_pr__pfet_01v8_lvt ad=2.4e+13p pd=5.6e+07u as=0p ps=0u w=6e+06u l=350000u
X2 OUT Bias1 VDD VDD sky130_fd_pr__pfet_01v8_lvt ad=2.4e+13p pd=5.6e+07u as=0p ps=0u w=6e+06u l=350000u
X3 VSS a_n920_n5950# OUT VSS sky130_fd_pr__nfet_01v8_lvt ad=2.1e+13p pd=5.2e+07u as=1.2e+13p ps=2.8e+07u w=6e+06u l=350000u
X4 VDD Bias1 OUT VDD sky130_fd_pr__pfet_01v8_lvt ad=0p pd=0u as=0p ps=0u w=6e+06u l=350000u
X5 a_n920_n5950# a_n920_n3280# VSS VSS sky130_fd_pr__nfet_01v8_lvt ad=3e+12p pd=8e+06u as=0p ps=0u w=3e+06u l=350000u
X6 a_n3330_n4260# INN a_n920_n3280# VDD sky130_fd_pr__pfet_01v8_lvt ad=0p pd=0u as=0p ps=0u w=6e+06u l=350000u
X7 a_n920_n5950# INP a_n3330_n4260# VDD sky130_fd_pr__pfet_01v8_lvt ad=2.4e+13p pd=5.6e+07u as=0p ps=0u w=6e+06u l=350000u
X8 a_2320_n5980# a_n920_n5950# VSS sky130_fd_pr__res_high_po w=2e+06u l=2e+06u
X9 a_n3330_n4260# INP a_n920_n5950# VDD sky130_fd_pr__pfet_01v8_lvt ad=0p pd=0u as=0p ps=0u w=6e+06u l=350000u
X10 VDD Bias1 OUT VDD sky130_fd_pr__pfet_01v8_lvt ad=0p pd=0u as=0p ps=0u w=6e+06u l=350000u
X11 VSS a_n920_n3280# a_n920_n3280# VSS sky130_fd_pr__nfet_01v8_lvt ad=0p pd=0u as=3e+12p ps=8e+06u w=3e+06u l=350000u
X12 a_n920_n3280# INN a_n3330_n4260# VDD sky130_fd_pr__pfet_01v8_lvt ad=0p pd=0u as=0p ps=0u w=6e+06u l=350000u
X13 OUT Bias1 VDD VDD sky130_fd_pr__pfet_01v8_lvt ad=0p pd=0u as=0p ps=0u w=6e+06u l=350000u
X14 a_n3330_n4260# Bias1 VDD VDD sky130_fd_pr__pfet_01v8_lvt ad=0p pd=0u as=0p ps=0u w=6e+06u l=350000u
X15 OUT Bias1 VDD VDD sky130_fd_pr__pfet_01v8_lvt ad=0p pd=0u as=0p ps=0u w=6e+06u l=350000u
X16 a_n3330_n4260# INN a_n920_n3280# VDD sky130_fd_pr__pfet_01v8_lvt ad=0p pd=0u as=0p ps=0u w=6e+06u l=350000u
X17 OUT a_n920_n5950# VSS VSS sky130_fd_pr__nfet_01v8_lvt ad=0p pd=0u as=0p ps=0u w=6e+06u l=350000u
X18 Bias1 Bias1 VDD VDD sky130_fd_pr__pfet_01v8_lvt ad=9e+12p pd=1.2e+07u as=0p ps=0u w=3e+06u l=350000u
X19 VDD Bias1 OUT VDD sky130_fd_pr__pfet_01v8_lvt ad=0p pd=0u as=0p ps=0u w=6e+06u l=350000u
X20 a_n3330_n4260# INP a_n920_n5950# VDD sky130_fd_pr__pfet_01v8_lvt ad=0p pd=0u as=0p ps=0u w=6e+06u l=350000u
X21 a_n920_n3280# INN a_n3330_n4260# VDD sky130_fd_pr__pfet_01v8_lvt ad=0p pd=0u as=0p ps=0u w=6e+06u l=350000u
X22 OUT Bias1 VDD VDD sky130_fd_pr__pfet_01v8_lvt ad=0p pd=0u as=0p ps=0u w=6e+06u l=350000u
X23 a_n920_n5950# INP a_n3330_n4260# VDD sky130_fd_pr__pfet_01v8_lvt ad=0p pd=0u as=0p ps=0u w=6e+06u l=350000u
X24 OUT a_n920_n5950# VSS VSS sky130_fd_pr__nfet_01v8_lvt ad=0p pd=0u as=0p ps=0u w=6e+06u l=350000u
X25 VDD Bias1 a_n3330_n4260# VDD sky130_fd_pr__pfet_01v8_lvt ad=0p pd=0u as=0p ps=0u w=6e+06u l=350000u
X26 a_n3330_n4260# INP a_n920_n5950# VDD sky130_fd_pr__pfet_01v8_lvt ad=0p pd=0u as=0p ps=0u w=6e+06u l=350000u
X27 a_n920_n3280# a_n920_n3280# VSS VSS sky130_fd_pr__nfet_01v8_lvt ad=0p pd=0u as=0p ps=0u w=3e+06u l=350000u
X28 VSS a_n920_n3280# a_n920_n5950# VSS sky130_fd_pr__nfet_01v8_lvt ad=0p pd=0u as=0p ps=0u w=3e+06u l=350000u
X29 a_n3330_n4260# Bias1 VDD VDD sky130_fd_pr__pfet_01v8_lvt ad=0p pd=0u as=0p ps=0u w=6e+06u l=350000u
X30 a_n3330_n4260# INN a_n920_n3280# VDD sky130_fd_pr__pfet_01v8_lvt ad=0p pd=0u as=0p ps=0u w=6e+06u l=350000u
X31 a_2320_n5980# OUT sky130_fd_pr__cap_mim_m3_1 l=1e+07u w=1e+07u
X32 a_n3330_n4260# Bias1 VDD VDD sky130_fd_pr__pfet_01v8_lvt ad=0p pd=0u as=0p ps=0u w=6e+06u l=350000u
X33 a_n920_n5950# INP a_n3330_n4260# VDD sky130_fd_pr__pfet_01v8_lvt ad=0p pd=0u as=0p ps=0u w=6e+06u l=350000u
.ends

.subckt BarePadArray m5_n6160_n26770# m1_11810_n8800# m1_16340_n8810# BarePad_0/PAD
+ m1_19870_n3260#
.ends

.subckt pmosLVTarray2 BarePadArray_9/m5_n6160_n26770#
XBarePadArray_9 BarePadArray_9/m5_n6160_n26770# a_337132_256032# a_338932_256032#
+ BarePadArray_9/BarePad_0/PAD a_337298_256282# BarePadArray
XBarePadArray_10 BarePadArray_9/m5_n6160_n26770# a_380132_209902# BarePadArray_10/BarePad_0/PAD
+ BarePadArray_10/BarePad_0/PAD a_380332_209870# BarePadArray
XBarePadArray_11 BarePadArray_9/m5_n6160_n26770# a_337132_209902# a_338932_209902#
+ BarePadArray_11/BarePad_0/PAD a_337298_210282# BarePadArray
XBarePadArray_12 BarePadArray_9/m5_n6160_n26770# BarePadArray_12/BarePad_0/PAD BarePadArray_12/BarePad_0/PAD
+ BarePadArray_12/BarePad_0/PAD a_380332_163590# BarePadArray
XBarePadArray_13 BarePadArray_9/m5_n6160_n26770# BarePadArray_13/BarePad_0/PAD a_338932_163632#
+ BarePadArray_13/BarePad_0/PAD a_337298_164282# BarePadArray
XBarePadArray_14 BarePadArray_9/m5_n6160_n26770# a_380132_117232# BarePadArray_14/BarePad_0/PAD
+ BarePadArray_14/BarePad_0/PAD a_380332_117090# BarePadArray
XBarePadArray_15 BarePadArray_9/m5_n6160_n26770# a_337132_117232# a_338932_117232#
+ BarePadArray_15/BarePad_0/PAD a_337298_118282# BarePadArray
XBarePadArray_17 BarePadArray_9/m5_n6160_n26770# a_337132_70832# a_338932_70832# BarePadArray_17/BarePad_0/PAD
+ a_337298_72282# BarePadArray
XBarePadArray_16 BarePadArray_9/m5_n6160_n26770# a_380132_70832# BarePadArray_16/BarePad_0/PAD
+ BarePadArray_16/BarePad_0/PAD a_380332_70798# BarePadArray
XBarePadArray_18 BarePadArray_9/m5_n6160_n26770# a_380132_6232# BarePadArray_18/BarePad_0/PAD
+ BarePadArray_18/BarePad_0/PAD BarePadArray_18/BarePad_0/PAD BarePadArray
XBarePadArray_1 BarePadArray_9/m5_n6160_n26770# a_380132_440148# BarePadArray_1/BarePad_0/PAD
+ BarePadArray_1/BarePad_0/PAD a_380332_440118# BarePadArray
XBarePadArray_0 BarePadArray_9/m5_n6160_n26770# a_337132_440148# a_338932_440148#
+ BarePadArray_0/BarePad_0/PAD a_337298_440282# BarePadArray
XBarePadArray_19 BarePadArray_9/m5_n6160_n26770# a_337132_6232# a_338932_6232# BarePadArray_19/BarePad_0/PAD
+ a_337298_26282# BarePadArray
XBarePadArray_2 BarePadArray_9/m5_n6160_n26770# a_380132_394122# BarePadArray_2/BarePad_0/PAD
+ BarePadArray_2/BarePad_0/PAD a_380332_394096# BarePadArray
XBarePadArray_3 BarePadArray_9/m5_n6160_n26770# a_337132_394122# a_338932_394122#
+ BarePadArray_3/BarePad_0/PAD a_337298_394282# BarePadArray
XBarePadArray_4 BarePadArray_9/m5_n6160_n26770# a_380132_348104# BarePadArray_4/BarePad_0/PAD
+ BarePadArray_4/BarePad_0/PAD a_380332_348078# BarePadArray
XBarePadArray_5 BarePadArray_9/m5_n6160_n26770# a_337132_348104# a_338932_348104#
+ BarePadArray_5/BarePad_0/PAD a_337298_348282# BarePadArray
XBarePadArray_6 BarePadArray_9/m5_n6160_n26770# a_380132_302064# BarePadArray_6/BarePad_0/PAD
+ BarePadArray_6/BarePad_0/PAD a_380332_302024# BarePadArray
XBarePadArray_7 BarePadArray_9/m5_n6160_n26770# a_337132_302064# a_338932_302064#
+ BarePadArray_7/BarePad_0/PAD a_337298_302282# BarePadArray
XBarePadArray_8 BarePadArray_9/m5_n6160_n26770# a_380132_256032# BarePadArray_8/BarePad_0/PAD
+ BarePadArray_8/BarePad_0/PAD a_380332_255972# BarePadArray
X0 BarePadArray_18/BarePad_0/PAD BarePadArray_18/BarePad_0/PAD a_380132_6232# BarePadArray_18/BarePad_0/PAD sky130_fd_pr__pfet_01v8_lvt ad=7.399e+13p pd=1.48985e+08u as=4.599e+13p ps=9.2985e+07u w=1e+08u l=2e+07u
X1 BarePadArray_6/BarePad_0/PAD a_380332_302024# a_380132_302064# BarePadArray_6/BarePad_0/PAD sky130_fd_pr__pfet_01v8_lvt ad=2.5e+07p pd=5000u as=8.4e+11p ps=3.68e+06u w=840000u l=2e+07u
X2 a_338932_394122# a_337298_394282# a_337132_394122# BarePadArray_3/BarePad_0/PAD sky130_fd_pr__pfet_01v8_lvt ad=5.5e+11p pd=3.1e+06u as=5.5e+11p ps=3.1e+06u w=550000u l=8e+06u
X3 BarePadArray_4/BarePad_0/PAD a_380332_348078# a_380132_348104# BarePadArray_4/BarePad_0/PAD sky130_fd_pr__pfet_01v8_lvt ad=2.5e+07p pd=5000u as=6.4e+11p ps=3.28e+06u w=640000u l=2e+07u
X4 a_338932_70832# a_337298_72282# a_337132_70832# BarePadArray_17/BarePad_0/PAD sky130_fd_pr__pfet_01v8_lvt ad=7e+12p pd=1.6e+07u as=7e+12p ps=1.6e+07u w=7e+06u l=8e+06u
X5 BarePadArray_14/BarePad_0/PAD a_380332_117090# a_380132_117232# BarePadArray_14/BarePad_0/PAD sky130_fd_pr__pfet_01v8_lvt ad=2.5e+07p pd=5000u as=5e+12p ps=1.2e+07u w=5e+06u l=2e+07u
X6 BarePadArray_1/BarePad_0/PAD a_380332_440118# a_380132_440148# BarePadArray_1/BarePad_0/PAD sky130_fd_pr__pfet_01v8_lvt ad=2.5e+07p pd=5000u as=4.2e+11p ps=2.84e+06u w=420000u l=2e+07u
X7 a_338932_163632# a_337298_164282# BarePadArray_13/BarePad_0/PAD BarePadArray_13/BarePad_0/PAD sky130_fd_pr__pfet_01v8_lvt ad=3e+12p pd=8e+06u as=3e+12p ps=8e+06u w=3e+06u l=8e+06u
X8 BarePadArray_16/BarePad_0/PAD a_380332_70798# a_380132_70832# BarePadArray_16/BarePad_0/PAD sky130_fd_pr__pfet_01v8_lvt ad=2.5e+07p pd=5000u as=7e+12p ps=1.6e+07u w=7e+06u l=2e+07u
X9 BarePadArray_8/BarePad_0/PAD a_380332_255972# a_380132_256032# BarePadArray_8/BarePad_0/PAD sky130_fd_pr__pfet_01v8_lvt ad=2.5e+07p pd=5000u as=1e+12p ps=4e+06u w=1e+06u l=2e+07u
X10 a_338932_302064# a_337298_302282# a_337132_302064# BarePadArray_7/BarePad_0/PAD sky130_fd_pr__pfet_01v8_lvt ad=8.4e+11p pd=3.68e+06u as=8.4e+11p ps=3.68e+06u w=840000u l=8e+06u
X11 a_338932_348104# a_337298_348282# a_337132_348104# BarePadArray_5/BarePad_0/PAD sky130_fd_pr__pfet_01v8_lvt ad=6.4e+11p pd=3.28e+06u as=6.4e+11p ps=3.28e+06u w=640000u l=8e+06u
X12 BarePadArray_10/BarePad_0/PAD a_380332_209870# a_380132_209902# BarePadArray_10/BarePad_0/PAD sky130_fd_pr__pfet_01v8_lvt ad=2.5e+07p pd=5000u as=1.65e+12p ps=5.3e+06u w=1.65e+06u l=2e+07u
X13 a_338932_117232# a_337298_118282# a_337132_117232# BarePadArray_15/BarePad_0/PAD sky130_fd_pr__pfet_01v8_lvt ad=5e+12p pd=1.2e+07u as=5e+12p ps=1.2e+07u w=5e+06u l=8e+06u
X14 a_338932_440148# a_337298_440282# a_337132_440148# BarePadArray_0/BarePad_0/PAD sky130_fd_pr__pfet_01v8_lvt ad=4.2e+11p pd=2.84e+06u as=4.2e+11p ps=2.84e+06u w=420000u l=8e+06u
X15 a_338932_6232# a_337298_26282# a_337132_6232# BarePadArray_19/BarePad_0/PAD sky130_fd_pr__pfet_01v8_lvt ad=7.399e+13p pd=1.48985e+08u as=4.599e+13p ps=9.2985e+07u w=1e+08u l=8e+06u
X16 a_338932_256032# a_337298_256282# a_337132_256032# BarePadArray_9/BarePad_0/PAD sky130_fd_pr__pfet_01v8_lvt ad=1e+12p pd=4e+06u as=1e+12p ps=4e+06u w=1e+06u l=8e+06u
X17 a_338932_209902# a_337298_210282# a_337132_209902# BarePadArray_11/BarePad_0/PAD sky130_fd_pr__pfet_01v8_lvt ad=1.65e+12p pd=5.3e+06u as=1.65e+12p ps=5.3e+06u w=1.65e+06u l=8e+06u
X18 BarePadArray_2/BarePad_0/PAD a_380332_394096# a_380132_394122# BarePadArray_2/BarePad_0/PAD sky130_fd_pr__pfet_01v8_lvt ad=2.5e+07p pd=5000u as=5.5e+11p ps=3.1e+06u w=550000u l=2e+07u
X19 BarePadArray_12/BarePad_0/PAD a_380332_163590# BarePadArray_12/BarePad_0/PAD BarePadArray_12/BarePad_0/PAD sky130_fd_pr__pfet_01v8_lvt ad=3.00002e+12p pd=8.005e+06u as=0p ps=0u w=3e+06u l=2e+07u
.ends

.subckt BarePadArray1x5 BarePadArray_3/BarePad_0/PAD BarePadArray_3/m1_11810_n8800#
+ BarePadArray_3/m1_16340_n8810# BarePadArray_4/m1_19870_n3260# BarePadArray_1/BarePad_0/PAD
+ BarePadArray_2/m1_11810_n8800# BarePadArray_2/m1_16340_n8810# BarePadArray_3/m1_19870_n3260#
+ BarePadArray_4/BarePad_0/PAD BarePadArray_1/m1_11810_n8800# BarePadArray_1/m1_16340_n8810#
+ BarePadArray_2/m1_19870_n3260# BarePadArray_2/BarePad_0/PAD BarePadArray_0/m1_11810_n8800#
+ BarePadArray_0/m1_16340_n8810# BarePadArray_1/m1_19870_n3260# BarePadArray_4/m5_n6160_n26770#
+ BarePadArray_0/BarePad_0/PAD BarePadArray_0/m1_19870_n3260# BarePadArray_4/m1_11810_n8800#
+ BarePadArray_4/m1_16340_n8810#
XBarePadArray_0 BarePadArray_4/m5_n6160_n26770# BarePadArray_0/m1_11810_n8800# BarePadArray_0/m1_16340_n8810#
+ BarePadArray_0/BarePad_0/PAD BarePadArray_0/m1_19870_n3260# BarePadArray
XBarePadArray_1 BarePadArray_4/m5_n6160_n26770# BarePadArray_1/m1_11810_n8800# BarePadArray_1/m1_16340_n8810#
+ BarePadArray_1/BarePad_0/PAD BarePadArray_1/m1_19870_n3260# BarePadArray
XBarePadArray_2 BarePadArray_4/m5_n6160_n26770# BarePadArray_2/m1_11810_n8800# BarePadArray_2/m1_16340_n8810#
+ BarePadArray_2/BarePad_0/PAD BarePadArray_2/m1_19870_n3260# BarePadArray
XBarePadArray_3 BarePadArray_4/m5_n6160_n26770# BarePadArray_3/m1_11810_n8800# BarePadArray_3/m1_16340_n8810#
+ BarePadArray_3/BarePad_0/PAD BarePadArray_3/m1_19870_n3260# BarePadArray
XBarePadArray_4 BarePadArray_4/m5_n6160_n26770# BarePadArray_4/m1_11810_n8800# BarePadArray_4/m1_16340_n8810#
+ BarePadArray_4/BarePad_0/PAD BarePadArray_4/m1_19870_n3260# BarePadArray
.ends

.subckt BarePadArray1x10 BarePadArray1x5_1/BarePadArray_0/m1_19870_n3260# BarePadArray1x5_1/BarePadArray_4/m1_11810_n8800#
+ BarePadArray1x5_0/BarePadArray_0/BarePad_0/PAD BarePadArray1x5_0/BarePadArray_4/m1_11810_n8800#
+ BarePadArray1x5_1/BarePadArray_4/m1_16340_n8810# BarePadArray1x5_0/BarePadArray_0/m1_19870_n3260#
+ BarePadArray1x5_0/BarePadArray_4/m1_16340_n8810# BarePadArray1x5_0/BarePadArray_3/BarePad_0/PAD
+ BarePadArray1x5_1/BarePadArray_1/BarePad_0/PAD BarePadArray1x5_1/BarePadArray_3/m1_11810_n8800#
+ BarePadArray1x5_0/BarePadArray_3/m1_11810_n8800# BarePadArray1x5_1/BarePadArray_3/m1_16340_n8810#
+ BarePadArray1x5_0/BarePadArray_3/m1_16340_n8810# BarePadArray1x5_1/BarePadArray_4/m1_19870_n3260#
+ BarePadArray1x5_1/BarePadArray_4/BarePad_0/PAD BarePadArray1x5_0/BarePadArray_4/m1_19870_n3260#
+ BarePadArray1x5_0/BarePadArray_1/BarePad_0/PAD BarePadArray1x5_1/BarePadArray_2/m1_11810_n8800#
+ BarePadArray1x5_0/BarePadArray_2/m1_11810_n8800# BarePadArray1x5_1/BarePadArray_2/m1_16340_n8810#
+ BarePadArray1x5_0/BarePadArray_2/m1_16340_n8810# BarePadArray1x5_1/BarePadArray_3/m1_19870_n3260#
+ BarePadArray1x5_0/BarePadArray_3/m1_19870_n3260# BarePadArray1x5_0/BarePadArray_4/BarePad_0/PAD
+ BarePadArray1x5_1/BarePadArray_2/BarePad_0/PAD BarePadArray1x5_1/BarePadArray_1/m1_11810_n8800#
+ BarePadArray1x5_1/BarePadArray_1/m1_16340_n8810# BarePadArray1x5_1/BarePadArray_2/m1_19870_n3260#
+ BarePadArray1x5_0/BarePadArray_1/m1_11810_n8800# BarePadArray1x5_0/BarePadArray_2/m1_19870_n3260#
+ BarePadArray1x5_0/BarePadArray_1/m1_16340_n8810# BarePadArray1x5_0/BarePadArray_2/BarePad_0/PAD
+ BarePadArray1x5_1/BarePadArray_0/m1_11810_n8800# BarePadArray1x5_1/BarePadArray_0/m1_16340_n8810#
+ BarePadArray1x5_1/BarePadArray_0/BarePad_0/PAD BarePadArray1x5_0/BarePadArray_0/m1_11810_n8800#
+ BarePadArray1x5_1/BarePadArray_1/m1_19870_n3260# BarePadArray1x5_0/BarePadArray_0/m1_16340_n8810#
+ BarePadArray1x5_0/BarePadArray_1/m1_19870_n3260# BarePadArray1x5_1/BarePadArray_3/BarePad_0/PAD
+ BarePadArray1x5_1/BarePadArray_4/m5_n6160_n26770#
XBarePadArray1x5_0 BarePadArray1x5_0/BarePadArray_3/BarePad_0/PAD BarePadArray1x5_0/BarePadArray_3/m1_11810_n8800#
+ BarePadArray1x5_0/BarePadArray_3/m1_16340_n8810# BarePadArray1x5_0/BarePadArray_4/m1_19870_n3260#
+ BarePadArray1x5_0/BarePadArray_1/BarePad_0/PAD BarePadArray1x5_0/BarePadArray_2/m1_11810_n8800#
+ BarePadArray1x5_0/BarePadArray_2/m1_16340_n8810# BarePadArray1x5_0/BarePadArray_3/m1_19870_n3260#
+ BarePadArray1x5_0/BarePadArray_4/BarePad_0/PAD BarePadArray1x5_0/BarePadArray_1/m1_11810_n8800#
+ BarePadArray1x5_0/BarePadArray_1/m1_16340_n8810# BarePadArray1x5_0/BarePadArray_2/m1_19870_n3260#
+ BarePadArray1x5_0/BarePadArray_2/BarePad_0/PAD BarePadArray1x5_0/BarePadArray_0/m1_11810_n8800#
+ BarePadArray1x5_0/BarePadArray_0/m1_16340_n8810# BarePadArray1x5_0/BarePadArray_1/m1_19870_n3260#
+ BarePadArray1x5_1/BarePadArray_4/m5_n6160_n26770# BarePadArray1x5_0/BarePadArray_0/BarePad_0/PAD
+ BarePadArray1x5_0/BarePadArray_0/m1_19870_n3260# BarePadArray1x5_0/BarePadArray_4/m1_11810_n8800#
+ BarePadArray1x5_0/BarePadArray_4/m1_16340_n8810# BarePadArray1x5
XBarePadArray1x5_1 BarePadArray1x5_1/BarePadArray_3/BarePad_0/PAD BarePadArray1x5_1/BarePadArray_3/m1_11810_n8800#
+ BarePadArray1x5_1/BarePadArray_3/m1_16340_n8810# BarePadArray1x5_1/BarePadArray_4/m1_19870_n3260#
+ BarePadArray1x5_1/BarePadArray_1/BarePad_0/PAD BarePadArray1x5_1/BarePadArray_2/m1_11810_n8800#
+ BarePadArray1x5_1/BarePadArray_2/m1_16340_n8810# BarePadArray1x5_1/BarePadArray_3/m1_19870_n3260#
+ BarePadArray1x5_1/BarePadArray_4/BarePad_0/PAD BarePadArray1x5_1/BarePadArray_1/m1_11810_n8800#
+ BarePadArray1x5_1/BarePadArray_1/m1_16340_n8810# BarePadArray1x5_1/BarePadArray_2/m1_19870_n3260#
+ BarePadArray1x5_1/BarePadArray_2/BarePad_0/PAD BarePadArray1x5_1/BarePadArray_0/m1_11810_n8800#
+ BarePadArray1x5_1/BarePadArray_0/m1_16340_n8810# BarePadArray1x5_1/BarePadArray_1/m1_19870_n3260#
+ BarePadArray1x5_1/BarePadArray_4/m5_n6160_n26770# BarePadArray1x5_1/BarePadArray_0/BarePad_0/PAD
+ BarePadArray1x5_1/BarePadArray_0/m1_19870_n3260# BarePadArray1x5_1/BarePadArray_4/m1_11810_n8800#
+ BarePadArray1x5_1/BarePadArray_4/m1_16340_n8810# BarePadArray1x5
.ends

.subckt BarePadArray10x10 BarePadArray1x10_3/BarePadArray1x5_1/BarePadArray_4/m1_16340_n8810#
+ BarePadArray1x10_7/BarePadArray1x5_0/BarePadArray_0/m1_11810_n8800# BarePadArray1x10_1/BarePadArray1x5_1/BarePadArray_0/BarePad_0/PAD
+ BarePadArray1x10_4/BarePadArray1x5_0/BarePadArray_3/m1_19870_n3260# BarePadArray1x10_7/BarePadArray1x5_1/BarePadArray_1/m1_19870_n3260#
+ BarePadArray1x10_2/BarePadArray1x5_1/BarePadArray_1/m1_16340_n8810# BarePadArray1x10_6/BarePadArray1x5_1/BarePadArray_2/m1_11810_n8800#
+ BarePadArray1x10_8/BarePadArray1x5_0/BarePadArray_3/m1_16340_n8810# BarePadArray1x10_3/BarePadArray1x5_0/BarePadArray_4/m1_11810_n8800#
+ BarePadArray1x10_3/BarePadArray1x5_0/BarePadArray_0/m1_19870_n3260# BarePadArray1x10_2/BarePadArray1x5_0/BarePadArray_1/m1_11810_n8800#
+ BarePadArray1x10_7/BarePadArray1x5_0/BarePadArray_0/m1_16340_n8810# BarePadArray1x10_6/BarePadArray1x5_0/BarePadArray_4/BarePad_0/PAD
+ BarePadArray1x10_8/BarePadArray1x5_0/BarePadArray_2/BarePad_0/PAD BarePadArray1x10_2/BarePadArray1x5_1/BarePadArray_2/m1_19870_n3260#
+ BarePadArray1x10_8/BarePadArray1x5_0/BarePadArray_4/m1_19870_n3260# BarePadArray1x10_3/BarePadArray1x5_0/BarePadArray_4/m1_16340_n8810#
+ BarePadArray1x10_6/BarePadArray1x5_1/BarePadArray_2/m1_16340_n8810# BarePadArray1x10_1/BarePadArray1x5_1/BarePadArray_3/m1_11810_n8800#
+ BarePadArray1x10_7/BarePadArray1x5_0/BarePadArray_1/m1_19870_n3260# BarePadArray1x10_3/BarePadArray1x5_0/BarePadArray_3/BarePad_0/PAD
+ BarePadArray1x10_5/BarePadArray1x5_0/BarePadArray_1/BarePad_0/PAD BarePadArray1x10_2/BarePadArray1x5_0/BarePadArray_1/m1_16340_n8810#
+ BarePadArray1x10_0/BarePadArray1x5_1/BarePadArray_0/m1_11810_n8800# BarePadArray1x10_9/BarePadArray1x5_1/BarePadArray_0/m1_11810_n8800#
+ BarePadArray1x10_6/BarePadArray1x5_0/BarePadArray_2/m1_11810_n8800# BarePadArray1x10_9/BarePadArray1x5_1/BarePadArray_3/BarePad_0/PAD
+ BarePadArray1x10_6/BarePadArray1x5_1/BarePadArray_3/m1_19870_n3260# BarePadArray1x10_1/BarePadArray1x5_1/BarePadArray_3/m1_16340_n8810#
+ BarePadArray1x10_5/BarePadArray1x5_1/BarePadArray_4/m1_11810_n8800# BarePadArray1x10_2/BarePadArray1x5_0/BarePadArray_0/BarePad_0/PAD
+ BarePadArray1x10_0/BarePadArray1x5_0/BarePadArray_2/BarePad_0/PAD BarePadArray1x10_2/BarePadArray1x5_0/BarePadArray_2/m1_19870_n3260#
+ BarePadArray1x10_5/BarePadArray1x5_1/BarePadArray_0/m1_19870_n3260# BarePadArray1x10_4/BarePadArray1x5_1/BarePadArray_4/BarePad_0/PAD
+ BarePadArray1x10_6/BarePadArray1x5_1/BarePadArray_2/BarePad_0/PAD BarePadArray1x10_8/BarePadArray1x5_1/BarePadArray_0/BarePad_0/PAD
+ BarePadArray1x10_0/BarePadArray1x5_1/BarePadArray_0/m1_16340_n8810# BarePadArray1x10_1/BarePadArray1x5_0/BarePadArray_3/m1_11810_n8800#
+ BarePadArray1x10_4/BarePadArray1x5_1/BarePadArray_1/m1_11810_n8800# BarePadArray1x10_6/BarePadArray1x5_0/BarePadArray_2/m1_16340_n8810#
+ BarePadArray1x10_9/BarePadArray1x5_1/BarePadArray_0/m1_16340_n8810# BarePadArray1x10_1/BarePadArray1x5_1/BarePadArray_4/m1_19870_n3260#
+ BarePadArray1x10_0/BarePadArray1x5_0/BarePadArray_0/m1_11810_n8800# BarePadArray1x10_3/BarePadArray1x5_1/BarePadArray_1/BarePad_0/PAD
+ BarePadArray1x10_5/BarePadArray1x5_1/BarePadArray_4/m1_16340_n8810# BarePadArray1x10_1/BarePadArray1x5_1/BarePadArray_3/BarePad_0/PAD
+ BarePadArray1x10_9/BarePadArray1x5_0/BarePadArray_0/m1_11810_n8800# BarePadArray1x10_0/BarePadArray1x5_1/BarePadArray_1/m1_19870_n3260#
+ BarePadArray1x10_9/BarePadArray1x5_1/BarePadArray_1/m1_19870_n3260# BarePadArray1x10_6/BarePadArray1x5_0/BarePadArray_3/m1_19870_n3260#
+ BarePadArray1x10_4/BarePadArray1x5_1/BarePadArray_1/m1_16340_n8810# BarePadArray1x10_1/BarePadArray1x5_0/BarePadArray_3/m1_16340_n8810#
+ BarePadArray1x10_8/BarePadArray1x5_1/BarePadArray_2/m1_11810_n8800# BarePadArray1x10_5/BarePadArray1x5_0/BarePadArray_4/m1_11810_n8800#
+ BarePadArray1x10_0/BarePadArray1x5_1/BarePadArray_0/BarePad_0/PAD BarePadArray1x10_5/BarePadArray1x5_0/BarePadArray_0/m1_19870_n3260#
+ BarePadArray1x10_0/BarePadArray1x5_0/BarePadArray_0/m1_16340_n8810# BarePadArray1x10_9/BarePadArray1x5_0/BarePadArray_0/m1_16340_n8810#
+ BarePadArray1x10_4/BarePadArray1x5_0/BarePadArray_1/m1_11810_n8800# BarePadArray1x10_4/BarePadArray1x5_1/BarePadArray_2/m1_19870_n3260#
+ BarePadArray1x10_1/BarePadArray1x5_0/BarePadArray_4/m1_19870_n3260# BarePadArray1x10_3/BarePadArray1x5_1/BarePadArray_3/m1_11810_n8800#
+ BarePadArray1x10_5/BarePadArray1x5_0/BarePadArray_4/m1_16340_n8810# BarePadArray1x10_8/BarePadArray1x5_1/BarePadArray_2/m1_16340_n8810#
+ BarePadArray1x10_0/BarePadArray1x5_0/BarePadArray_1/m1_19870_n3260# BarePadArray1x10_9/BarePadArray1x5_0/BarePadArray_0/BarePad_0/PAD
+ BarePadArray1x10_9/BarePadArray1x5_0/BarePadArray_1/m1_19870_n3260# BarePadArray1x10_5/BarePadArray1x5_0/BarePadArray_4/BarePad_0/PAD
+ BarePadArray1x10_7/BarePadArray1x5_0/BarePadArray_2/BarePad_0/PAD BarePadArray1x10_2/BarePadArray1x5_1/BarePadArray_0/m1_11810_n8800#
+ BarePadArray1x10_4/BarePadArray1x5_0/BarePadArray_1/m1_16340_n8810# BarePadArray1x10_8/BarePadArray1x5_0/BarePadArray_2/m1_11810_n8800#
+ BarePadArray1x10_8/BarePadArray1x5_1/BarePadArray_3/m1_19870_n3260# BarePadArray1x10_3/BarePadArray1x5_1/BarePadArray_3/m1_16340_n8810#
+ BarePadArray1x10_2/BarePadArray1x5_0/BarePadArray_3/BarePad_0/PAD BarePadArray1x10_7/BarePadArray1x5_1/BarePadArray_4/m1_11810_n8800#
+ BarePadArray1x10_4/BarePadArray1x5_0/BarePadArray_1/BarePad_0/PAD BarePadArray1x10_8/BarePadArray1x5_1/BarePadArray_3/BarePad_0/PAD
+ BarePadArray1x10_4/BarePadArray1x5_0/BarePadArray_2/m1_19870_n3260# BarePadArray1x10_7/BarePadArray1x5_1/BarePadArray_0/m1_19870_n3260#
+ BarePadArray1x10_2/BarePadArray1x5_1/BarePadArray_0/m1_16340_n8810# BarePadArray1x10_3/BarePadArray1x5_0/BarePadArray_3/m1_11810_n8800#
+ BarePadArray1x10_8/BarePadArray1x5_0/BarePadArray_2/m1_16340_n8810# BarePadArray1x10_6/BarePadArray1x5_1/BarePadArray_1/m1_11810_n8800#
+ BarePadArray1x10_1/BarePadArray1x5_0/BarePadArray_0/BarePad_0/PAD BarePadArray1x10_3/BarePadArray1x5_1/BarePadArray_4/m1_19870_n3260#
+ BarePadArray1x10_7/BarePadArray1x5_1/BarePadArray_0/BarePad_0/PAD BarePadArray1x10_3/BarePadArray1x5_1/BarePadArray_4/BarePad_0/PAD
+ BarePadArray1x10_5/BarePadArray1x5_1/BarePadArray_2/BarePad_0/PAD BarePadArray1x10_2/BarePadArray1x5_0/BarePadArray_0/m1_11810_n8800#
+ BarePadArray1x10_2/BarePadArray1x5_1/BarePadArray_1/m1_19870_n3260# BarePadArray1x10_8/BarePadArray1x5_0/BarePadArray_3/m1_19870_n3260#
+ BarePadArray1x10_3/BarePadArray1x5_0/BarePadArray_3/m1_16340_n8810# BarePadArray1x10_1/BarePadArray1x5_1/BarePadArray_2/m1_11810_n8800#
+ BarePadArray1x10_6/BarePadArray1x5_1/BarePadArray_1/m1_16340_n8810# BarePadArray1x10_7/BarePadArray1x5_0/BarePadArray_4/m1_11810_n8800#
+ BarePadArray1x10_2/BarePadArray1x5_1/BarePadArray_1/BarePad_0/PAD BarePadArray1x10_0/BarePadArray1x5_1/BarePadArray_3/BarePad_0/PAD
+ BarePadArray1x10_7/BarePadArray1x5_0/BarePadArray_0/m1_19870_n3260# BarePadArray1x10_2/BarePadArray1x5_0/BarePadArray_0/m1_16340_n8810#
+ BarePadArray1x10_6/BarePadArray1x5_0/BarePadArray_1/m1_11810_n8800# BarePadArray1x10_6/BarePadArray1x5_1/BarePadArray_2/m1_19870_n3260#
+ BarePadArray1x10_3/BarePadArray1x5_0/BarePadArray_4/m1_19870_n3260# BarePadArray1x10_1/BarePadArray1x5_1/BarePadArray_2/m1_16340_n8810#
+ BarePadArray1x10_5/BarePadArray1x5_1/BarePadArray_3/m1_11810_n8800# BarePadArray1x10_7/BarePadArray1x5_0/BarePadArray_4/m1_16340_n8810#
+ BarePadArray1x10_9/BarePadArray1x5_0/BarePadArray_3/BarePad_0/PAD BarePadArray1x10_2/BarePadArray1x5_0/BarePadArray_1/m1_19870_n3260#
+ BarePadArray1x10_1/BarePadArray1x5_0/BarePadArray_2/m1_11810_n8800# BarePadArray1x10_4/BarePadArray1x5_1/BarePadArray_0/m1_11810_n8800#
+ BarePadArray1x10_6/BarePadArray1x5_0/BarePadArray_1/m1_16340_n8810# BarePadArray1x10_1/BarePadArray1x5_1/BarePadArray_3/m1_19870_n3260#
+ BarePadArray1x10_6/BarePadArray1x5_0/BarePadArray_2/BarePad_0/PAD BarePadArray1x10_8/BarePadArray1x5_0/BarePadArray_0/BarePad_0/PAD
+ BarePadArray1x10_0/BarePadArray1x5_1/BarePadArray_4/m1_11810_n8800# BarePadArray1x10_4/BarePadArray1x5_0/BarePadArray_4/BarePad_0/PAD
+ BarePadArray1x10_5/BarePadArray1x5_1/BarePadArray_3/m1_16340_n8810# BarePadArray1x10_9/BarePadArray1x5_1/BarePadArray_4/m1_11810_n8800#
+ BarePadArray1x10_0/BarePadArray1x5_1/BarePadArray_0/m1_19870_n3260# BarePadArray1x10_9/BarePadArray1x5_1/BarePadArray_0/m1_19870_n3260#
+ BarePadArray1x10_6/BarePadArray1x5_0/BarePadArray_2/m1_19870_n3260# BarePadArray1x10_1/BarePadArray1x5_0/BarePadArray_2/m1_16340_n8810#
+ BarePadArray1x10_4/BarePadArray1x5_1/BarePadArray_0/m1_16340_n8810# BarePadArray1x10_8/BarePadArray1x5_1/BarePadArray_1/m1_11810_n8800#
+ BarePadArray1x10_5/BarePadArray1x5_0/BarePadArray_3/m1_11810_n8800# BarePadArray1x10_1/BarePadArray1x5_0/BarePadArray_3/BarePad_0/PAD
+ BarePadArray1x10_3/BarePadArray1x5_0/BarePadArray_1/BarePad_0/PAD BarePadArray1x10_5/BarePadArray1x5_1/BarePadArray_4/m1_19870_n3260#
+ BarePadArray1x10_7/BarePadArray1x5_1/BarePadArray_3/BarePad_0/PAD BarePadArray1x10_9/BarePadArray1x5_1/BarePadArray_1/BarePad_0/PAD
+ BarePadArray1x10_0/BarePadArray1x5_1/BarePadArray_4/m1_16340_n8810# BarePadArray1x10_4/BarePadArray1x5_0/BarePadArray_0/m1_11810_n8800#
+ BarePadArray1x10_9/BarePadArray1x5_1/BarePadArray_4/m1_16340_n8810# BarePadArray1x10_1/BarePadArray1x5_0/BarePadArray_3/m1_19870_n3260#
+ BarePadArray1x10_4/BarePadArray1x5_1/BarePadArray_1/m1_19870_n3260# BarePadArray1x10_0/BarePadArray1x5_0/BarePadArray_0/BarePad_0/PAD
+ BarePadArray1x10_8/BarePadArray1x5_1/BarePadArray_1/m1_16340_n8810# BarePadArray1x10_0/BarePadArray1x5_0/BarePadArray_4/m1_11810_n8800#
+ BarePadArray1x10_5/BarePadArray1x5_0/BarePadArray_3/m1_16340_n8810# BarePadArray1x10_3/BarePadArray1x5_1/BarePadArray_2/m1_11810_n8800#